168
TRI 14.67248 8.47112 0.0 14.67248 -8.47112 0.0 0.0 0.0 30.0          
Sb  -15.89514   -8.47112   -6.91664
Sb  -12.22704  -10.58890   -6.91664
Te  -13.44974  -12.70669   -8.64580
Te  -13.44974   -8.47111   -8.64580
Te  -17.11786  -10.58890   -8.64580
Te   -9.78162  -10.58890   -8.64580
Sb   -8.55894   -8.47112   -6.91664
Ge  -13.44974   -4.23556   -3.45832
Sb  -12.22704   -6.35334   -6.91664
Ge   -9.78164   -6.35334   -3.45832
Te  -11.00434   -8.47113   -5.18748
Te  -11.00434   -4.23555   -5.18748
Te  -14.67246   -6.35334   -5.18748
Te   -7.33622   -6.35334   -5.18748
Sb   -6.11354   -4.23556   -3.45832
Ge  -11.00434    0.00000    0.00000
Sb   -9.78164   -2.11778   -3.45832
Ge   -7.33624   -2.11778    0.00000
Te   -8.55894   -4.23557   -1.72916
Te   -8.55894    0.00001   -1.72916
Te  -12.22706   -2.11778   -1.72916
Te   -4.89082   -2.11778   -1.72916
Ge   -3.66814    0.00000    0.00000
Sb   -8.55894    4.23556    3.45832
Ge   -4.89084    2.11778    3.45832
Te   -6.11354   -0.00001    1.72916
Te   -6.11354    4.23557    1.72916
Te   -9.78166    2.11778    1.72916
Te   -2.44542    2.11778    1.72916
Ge   -6.11354    8.47112    6.91664
Sb   -4.89084    6.35334    3.45832
Ge   -2.44544    6.35334    6.91664
Te   -3.66814    4.23555    5.18748
Te   -3.66814    8.47113    5.18748
Te   -7.33626    6.35334    5.18748
Te   -0.00002    6.35334    5.18748
Sb    1.22266    8.47112    6.91664
Ge   -2.44544   10.58890    6.91664
Te   -1.22274    8.47111    8.64580
Te   -1.22274   12.70669    8.64580
Te   -4.89086   10.58890    8.64580
Te    2.44538   10.58890    8.64580
Ge   -8.55890  -12.70668   -6.91664
Sb   -4.89080  -14.82446   -6.91664
Te   -6.11350  -16.94225   -8.64580
Te   -6.11350  -12.70667   -8.64580
Te   -9.78162  -14.82446   -8.64580
Te   -2.44538  -14.82446   -8.64580
Ge   -1.22270  -12.70668   -6.91664
Sb   -6.11350   -8.47112   -3.45832
Sb   -4.89080  -10.58890   -6.91664
Ge   -2.44540  -10.58890   -3.45832
Te   -3.66810  -12.70669   -5.18748
Te   -3.66810   -8.47111   -5.18748
Te   -7.33622  -10.58890   -5.18748
Te    0.00002  -10.58890   -5.18748
Ge    1.22270   -8.47112   -3.45832
Ge   -3.66810   -4.23556    0.00000
Ge   -2.44540   -6.35334   -3.45832
Sb   -0.00000   -6.35334    0.00000
Te   -1.22270   -8.47113   -1.72916
Te   -1.22270   -4.23555   -1.72916
Te   -4.89082   -6.35334   -1.72916
Te    2.44542   -6.35334   -1.72916
Sb    3.66810   -4.23556    0.00000
Sb   -1.22270    0.00000    3.45832
Sb    2.44540   -2.11778    3.45832
Te    1.22270   -4.23557    1.72916
Te    1.22270    0.00001    1.72916
Te   -2.44542   -2.11778    1.72916
Te    4.89082   -2.11778    1.72916
Ge    6.11350    0.00000    3.45832
Sb    1.22270    4.23556    6.91664
Sb    4.89080    2.11778    6.91664
Te    3.66810   -0.00001    5.18748
Te    3.66810    4.23557    5.18748
Te   -0.00002    2.11778    5.18748
Te    7.33622    2.11778    5.18748
Ge    8.55890    4.23556    6.91664
Ge    4.89080    6.35334    6.91664
Te    6.11350    4.23555    8.64580
Te    6.11350    8.47113    8.64580
Te    2.44538    6.35334    8.64580
Te    9.78162    6.35334    8.64580
Ge   -8.55890   -4.23556   -6.91664
Ge   -4.89080   -6.35334   -6.91664
Te   -6.11350   -8.47113   -8.64580
Te   -6.11350   -4.23555   -8.64580
Te   -9.78162   -6.35334   -8.64580
Te   -2.44538   -6.35334   -8.64580
Sb   -1.22270   -4.23556   -6.91664
Ge   -6.11350    0.00000   -3.45832
Sb   -4.89080   -2.11778   -6.91664
Te   -3.66810   -4.23557   -5.18748
Te   -3.66810    0.00001   -5.18748
Te   -7.33622   -2.11778   -5.18748
Te    0.00002   -2.11778   -5.18748
Sb    1.22270    0.00000   -3.45832
Sb   -3.66810    4.23556    0.00000
Sb   -2.44540    2.11778   -3.45832
Te   -1.22270   -0.00001   -1.72916
Te   -1.22270    4.23557   -1.72916
Te   -4.89082    2.11778   -1.72916
Te    2.44542    2.11778   -1.72916
Ge    3.66810    4.23556    0.00000
Ge   -1.22270    8.47112    3.45832
Sb    0.00000    6.35334    0.00000
Ge    2.44540    6.35334    3.45832
Te    1.22270    4.23555    1.72916
Te    1.22270    8.47113    1.72916
Te   -2.44542    6.35334    1.72916
Te    4.89082    6.35334    1.72916
Sb    6.11350    8.47112    3.45832
Ge    1.22270   12.70668    6.91664
Ge    2.44540   10.58890    3.45832
Sb    4.89080   10.58890    6.91664
Te    3.66810    8.47111    5.18748
Te    3.66810   12.70669    5.18748
Te   -0.00002   10.58890    5.18748
Te    7.33622   10.58890    5.18748
Ge    8.55890   12.70668    6.91664
Sb    4.89080   14.82446    6.91664
Te    6.11350   12.70667    8.64580
Te    6.11350   16.94225    8.64580
Te    2.44538   14.82446    8.64580
Te    9.78162   14.82446    8.64580
Sb   -1.22266   -8.47112   -6.91664
Ge    2.44544  -10.58890   -6.91664
Te    1.22274  -12.70669   -8.64580
Te    1.22274   -8.47111   -8.64580
Te   -2.44538  -10.58890   -8.64580
Te    4.89086  -10.58890   -8.64580
Ge    6.11354   -8.47112   -6.91664
Ge    2.44544   -6.35334   -6.91664
Sb    4.89084   -6.35334   -3.45832
Te    3.66814   -8.47113   -5.18748
Te    3.66814   -4.23555   -5.18748
Te    0.00002   -6.35334   -5.18748
Te    7.33626   -6.35334   -5.18748
Sb    8.55894   -4.23556   -3.45832
Ge    3.66814    0.00000    0.00000
Ge    4.89084   -2.11778   -3.45832
Te    6.11354   -4.23557   -1.72916
Te    6.11354    0.00001   -1.72916
Te    2.44542   -2.11778   -1.72916
Te    9.78166   -2.11778   -1.72916
Ge   11.00434    0.00000    0.00000
Sb    6.11354    4.23556    3.45832
Ge    7.33624    2.11778    0.00000
Sb    9.78164    2.11778    3.45832
Te    8.55894   -0.00001    1.72916
Te    8.55894    4.23557    1.72916
Te    4.89082    2.11778    1.72916
Te   12.22706    2.11778    1.72916
Ge   13.44974    4.23556    3.45832
Sb    8.55894    8.47112    6.91664
Ge    9.78164    6.35334    3.45832
Sb   12.22704    6.35334    6.91664
Te   11.00434    4.23555    5.18748
Te   11.00434    8.47113    5.18748
Te    7.33622    6.35334    5.18748
Te   14.67246    6.35334    5.18748
Sb   15.89514    8.47112    6.91664
Sb   12.22704   10.58890    6.91664
Te   13.44974    8.47111    8.64580
Te   13.44974   12.70669    8.64580
Te    9.78162   10.58890    8.64580
Te   17.11786   10.58890    8.64580
