128
TRI 14.67248 8.47112 0.0 22.00872 -12.70668 0.0 7.3362 12.70668 10.37496
Ge   -11.00436   -4.23556   -5.18748
Sb   -14.67246   -2.11778   -5.18748
Sb   -12.22706   -2.11778   -1.72916
Te   -13.44976   -4.23557   -3.45832
Te   -13.44976   9.99999999962e-06   -3.45832
Te   -17.11788   -2.11778   -3.45832
Te   -9.78164   -2.11778   -3.45832
Ge   -13.44976   4.23556   1.72916
Sb   -12.22706   2.11778   -1.72916
Ge   -9.78166   2.11778   1.72916
Te   -11.00436   -9.99999999962e-06   0.0
Te   -11.00436   4.23557   0.0
Te   -14.67248   2.11778   0.0
Te   -7.33624   2.11778   0.0
Ge   -6.11356   4.23556   1.72916
Ge   -9.78166   6.35334   1.72916
Ge   -7.33626   6.35334   5.18748
Te   -8.55896   4.23555   3.45832
Te   -8.55896   8.47113   3.45832
Te   -12.22708   6.35334   3.45832
Te   -4.89084   6.35334   3.45832
Sb   -3.66812   -8.47112   -5.18748
Ge   -7.33622   -6.35334   -5.18748
Sb   -4.89082   -6.35334   -1.72916
Te   -6.11352   -8.47113   -3.45832
Te   -6.11352   -4.23555   -3.45832
Te   -9.78164   -6.35334   -3.45832
Te   -2.4454   -6.35334   -3.45832
Sb   -1.22272   -4.23556   -1.72916
Ge   -6.11352   0.0   1.72916
Ge   -4.89082   -2.11778   -1.72916
Ge   -2.44542   -2.11778   1.72916
Te   -3.66812   -4.23557   0.0
Te   -3.66812   9.99999999962e-06   0.0
Te   -7.33624   -2.11778   0.0
Te   -4.4408920985e-16   -2.11778   0.0
Ge   1.22268   -8.881784197e-16   1.72916
Sb   -3.66812   4.23556   5.18748
Sb   -2.44542   2.11778   1.72916
Te   -1.22272   -1.00000000005e-05   3.45832
Te   -1.22272   4.23557   3.45832
Te   -4.89084   2.11778   3.45832
Te   2.4454   2.11778   3.45832
Ge   3.66812   -12.70668   -5.18748
Sb   -1.22268   -8.47112   -1.72916
Sb   2.00000000006e-05   -10.5889   -5.18748
Sb   2.44542   -10.5889   -1.72916
Te   1.22272   -12.70669   -3.45832
Te   1.22272   -8.47111   -3.45832
Te   -2.4454   -10.5889   -3.45832
Te   4.89084   -10.5889   -3.45832
Ge   1.22272   -4.23556   1.72916
Sb   2.44542   -6.35334   -1.72916
Te   3.66812   -8.47113   0.0
Te   3.66812   -4.23555   0.0
Te   -4.4408920985e-16   -6.35334   0.0
Te   7.33624   -6.35334   0.0
Ge   8.55892   -4.23556   1.72916
Sb   3.66812   -8.881784197e-16   5.18748
Sb   4.89082   -2.11778   1.72916
Te   6.11352   -4.23557   3.45832
Te   6.11352   9.99999999873e-06   3.45832
Te   2.4454   -2.11778   3.45832
Te   9.78164   -2.11778   3.45832
Sb   -3.66812   0.0   -5.18748
Ge   -8.55892   4.23556   -1.72916
Sb   -4.89082   2.11778   -1.72916
Te   -6.11352   -9.99999999962e-06   -3.45832
Te   -6.11352   4.23557   -3.45832
Te   -9.78164   2.11778   -3.45832
Te   -2.4454   2.11778   -3.45832
Ge   -1.22272   4.23556   -1.72916
Sb   -2.44542   6.35334   1.72916
Te   -3.66812   4.23555   0.0
Te   -3.66812   8.47113   0.0
Te   -7.33624   6.35334   0.0
Te   -4.4408920985e-16   6.35334   0.0
Sb   1.22268   8.47112   1.72916
Ge   -3.66812   12.70668   5.18748
Sb   -2.44542   10.5889   1.72916
Sb   -2.00000000015e-05   10.5889   5.18748
Te   -1.22272   8.47111   3.45832
Te   -1.22272   12.70669   3.45832
Te   -4.89084   10.5889   3.45832
Te   2.4454   10.5889   3.45832
Sb   3.66812   -4.23556   -5.18748
Ge   -1.22268   8.881784197e-16   -1.72916
Sb   2.44542   -2.11778   -1.72916
Te   1.22272   -4.23557   -3.45832
Te   1.22272   1.00000000005e-05   -3.45832
Te   -2.4454   -2.11778   -3.45832
Te   4.89084   -2.11778   -3.45832
Ge   6.11352   0.0   -1.72916
Sb   1.22272   4.23556   1.72916
Ge   2.44542   2.11778   -1.72916
Ge   4.89082   2.11778   1.72916
Te   3.66812   -9.99999999962e-06   0.0
Te   3.66812   4.23557   0.0
Te   -4.4408920985e-16   2.11778   0.0
Te   7.33624   2.11778   0.0
Sb   3.66812   8.47112   5.18748
Sb   4.89082   6.35334   1.72916
Ge   7.33622   6.35334   5.18748
Te   6.11352   4.23555   3.45832
Te   6.11352   8.47113   3.45832
Te   2.4454   6.35334   3.45832
Te   9.78164   6.35334   3.45832
Ge   6.11356   -4.23556   -1.72916
Ge   7.33626   -6.35334   -5.18748
Ge   9.78166   -6.35334   -1.72916
Te   8.55896   -8.47113   -3.45832
Te   8.55896   -4.23555   -3.45832
Te   4.89084   -6.35334   -3.45832
Te   12.22708   -6.35334   -3.45832
Ge   13.44976   -4.23556   -1.72916
Ge   9.78166   -2.11778   -1.72916
Sb   12.22706   -2.11778   1.72916
Te   11.00436   -4.23557   0.0
Te   11.00436   1.00000000005e-05   0.0
Te   7.33624   -2.11778   0.0
Te   14.67248   -2.11778   0.0
Ge   11.00436   4.23556   5.18748
Sb   12.22706   2.11778   1.72916
Sb   14.67246   2.11778   5.18748
Te   13.44976   -1.00000000005e-05   3.45832
Te   13.44976   4.23557   3.45832
Te   9.78164   2.11778   3.45832
Te   17.11788   2.11778   3.45832
